Circuit: * H:\Documents_H\KiCad\Projects\battery-node\simulations\cell balance.asc

Direct Newton iteration for .op point succeeded.

Date: Sun Apr 26 01:04:18 2026
Total elapsed time: 0.035 seconds.

tnom = 27
temp = 27
method = modified trap
totiter = 2099
traniter = 2088
tranpoints = 1045
accept = 1045
rejected = 0
matrix size = 9
fillins = 0
solver = Normal
Matrix Compiler1:      30 opcodes  0.1/[0.1]/0.1
Matrix Compiler2: off  [0.1]/0.1/0.1

