Circuit: * H:\Documents_H\KiCad\Projects\battery-node\simulations\Draft1.asc

Direct Newton iteration for .op point succeeded.

Date: Thu Apr 09 19:21:02 2026
Total elapsed time: 0.039 seconds.

tnom = 27
temp = 27
method = modified trap
totiter = 2106
traniter = 2088
tranpoints = 1045
accept = 1045
rejected = 0
matrix size = 9
fillins = 0
solver = Normal
Matrix Compiler1: 528 bytes object code size  0.1/0.1/[0.1]
Matrix Compiler2: off  [0.1]/0.1/0.1

