Circuit: * H:\Documents_H\KiCad\Projects\battery-node\simulations\Draft3.asc

WARNING: Node NC_02 is floating.

WARNING: Less than two connections to node NC_01.  This node is used by R4.
WARNING: Less than two connections to node NC_02.  This node is used by R4.
Direct Newton iteration for .op point succeeded.

Date: Thu Apr 09 22:39:08 2026
Total elapsed time: 0.097 seconds.

tnom = 27
temp = 27
method = modified trap
totiter = 2253
traniter = 2237
tranpoints = 1077
accept = 1071
rejected = 6
matrix size = 16
fillins = 7
solver = Normal
Matrix Compiler1: 1006 bytes object code size  0.2/0.1/[0.1]
Matrix Compiler2: off  [0.1]/0.2/0.1

