Circuit: * H:\Documents_H\KiCad\Projects\battery-node\simulations\Draft4.asc

.dc sweep increment has wrong sign -- fixing...

Date: Tue Apr 21 00:01:42 2026
Total elapsed time: 0.036 seconds.

tnom = 27
temp = 27
method = trap
totiter = 157
traniter = 0
tranpoints = 0
accept = 0
rejected = 0
matrix size = 9
fillins = 0
solver = Normal
Matrix Compiler1:      25 opcodes  0.1/[0.1]/0.1
Matrix Compiler2: off  [0.1]/0.1/0.1

