Circuit: * H:\Documents_H\KiCad\Projects\battery-node\simulations\Draft2.asc

Direct Newton iteration for .op point succeeded.

Date: Thu Apr 09 21:31:52 2026
Total elapsed time: 0.043 seconds.

tnom = 27
temp = 27
method = modified trap
totiter = 2106
traniter = 2102
tranpoints = 1052
accept = 1052
rejected = 0
matrix size = 4
fillins = 0
solver = Normal
Matrix Compiler1: 100 bytes object code size  0.0/0.0/[0.0]
Matrix Compiler2: off  [0.0]/0.1/0.0

