Circuit: * H:\Documents_H\KiCad\Projects\battery-node\simulations\Draft1.asc

Direct Newton iteration for .op point succeeded.

Date: Thu Jan 29 21:04:30 2026
Total elapsed time: 0.045 seconds.

tnom = 27
temp = 27
method = modified trap
totiter = 2095
traniter = 2089
tranpoints = 1045
accept = 1045
rejected = 0
matrix size = 2
fillins = 0
solver = Normal
Matrix Compiler1: 54 bytes object code size  0.0/0.0/[0.0]
Matrix Compiler2: off  [0.0]/0.0/0.0

