Circuit: * H:\Documents_H\KiCad\Projects\battery-node\simulations\Draft1.asc

Direct Newton iteration for .op point succeeded.

Date: Thu Apr 09 01:26:18 2026
Total elapsed time: 0.026 seconds.

tnom = 27
temp = 27
method = modified trap
totiter = 2091
traniter = 2088
tranpoints = 1045
accept = 1045
rejected = 0
matrix size = 8
fillins = 0
solver = Normal
Matrix Compiler1: 228 bytes object code size  0.1/0.0/[0.0]
Matrix Compiler2: 540 bytes object code size  0.1/0.1/[0.1]

