Circuit: * H:\Documents_H\KiCad\Projects\battery-node\simulations\FET Driver rev4_testing_with_longer_short_time.asc

WARNING: Specified period is not longer than the sum of Trise, Tfall, and Ton for v2.  Increasing period to 1.002
WARNING: Less than two connections to node N004.  This node is used by M3.
Direct Newton iteration failed to find .op point.  (Use ".option noopiter" to skip.)
Starting Gmin stepping
Gmin = 10
Gmin = 1.07374
Gmin = 0.115292
Gmin = 0.0123794
Gmin = 0.00132923
Gmin = 0.000142725
Gmin = 1.5325e-005
Gmin = 1.6455e-006
Gmin = 1.76685e-007
Gmin = 1.89714e-008
Gmin = 2.03704e-009
Gmin = 2.18725e-010
Gmin = 2.34854e-011
Gmin = 2.52173e-012
Gmin = 2.70769e-013
Gmin = 0
Gmin stepping succeeded in finding the operating point.


Date: Sat Apr 11 09:15:31 2026
Total elapsed time: 0.124 seconds.

tnom = 27
temp = 27
method = modified trap
totiter = 3819
traniter = 3233
tranpoints = 1302
accept = 1249
rejected = 53
matrix size = 33
fillins = 22
solver = Normal
Matrix Compiler1: 3.17 KB object code size  0.6/0.3/[0.2]
Matrix Compiler2: 3.14 KB object code size  0.3/0.3/[0.2]

