Circuit: * H:\Documents_H\KiCad\Projects\battery-node\simulations\FET Driver rev5 fuck_yeah.asc

Direct Newton iteration for .op point succeeded.

Date: Tue Apr 21 23:52:45 2026
Total elapsed time: 0.142 seconds.

tnom = 27
temp = 27
method = modified trap
totiter = 7001
traniter = 6980
tranpoints = 2095
accept = 1851
rejected = 244
matrix size = 55
fillins = 82
solver = Normal
Matrix Compiler1: 9.09 KB object code size  1.1/0.6/[0.6]
Matrix Compiler2: 6.24 KB object code size  0.4/0.6/[0.4]

