Circuit: * H:\Documents_H\KiCad\Projects\battery-node\simulations\FET Driver rev4.asc

WARNING: Node N003 is floating.

Direct Newton iteration for .op point succeeded.

Date: Fri Jan 30 08:56:47 2026
Total elapsed time: 0.931 seconds.

tnom = 27
temp = 27
method = modified trap
totiter = 243582
traniter = 243560
tranpoints = 65969
accept = 46008
rejected = 19961
matrix size = 36
fillins = 24
solver = Normal
Matrix Compiler1: 3.54 KB object code size  0.5/0.3/[0.2]
Matrix Compiler2: 3.36 KB object code size  0.3/0.4/[0.2]

