Circuit: * H:\Documents_H\KiCad\Projects\battery-node\simulations\FET Driver rev2 dep_fet_test.asc

WARNING: Specified period is not longer than the sum of Trise, Tfall, and Ton for v2.  Increasing period to 2
WARNING: Node NC_02 is floating.

WARNING: Less than two connections to node NC_01.  This node is used by V2.
WARNING: Less than two connections to node NC_02.  This node is used by V2.
Direct Newton iteration for .op point succeeded.
Heightened Def Con from 0.0051 to 0.0051

Date: Tue Apr 21 20:44:53 2026
Total elapsed time: 0.110 seconds.

tnom = 27
temp = 27
method = modified trap
totiter = 5041
traniter = 5013
tranpoints = 1601
accept = 1468
rejected = 134
matrix size = 54
fillins = 72
solver = Normal
Matrix Compiler1: 8.48 KB object code size  1.1/0.5/[0.5]
Matrix Compiler2: 5.95 KB object code size  0.4/0.6/[0.3]

