Circuit: * H:\Documents_H\KiCad\Projects\battery-node\simulations\FET Driver rev2 working_simplified_test.asc

WARNING: Specified period is not longer than the sum of Trise, Tfall, and Ton for v2.  Increasing period to 2
Direct Newton iteration for .op point succeeded.

Date: Mon Apr 20 23:57:21 2026
Total elapsed time: 0.101 seconds.

tnom = 27
temp = 27
method = modified trap
totiter = 3889
traniter = 3869
tranpoints = 1522
accept = 1411
rejected = 111
matrix size = 40
fillins = 48
solver = Normal
Matrix Compiler1: 5.47 KB object code size  0.8/0.4/[0.3]
Matrix Compiler2: 4.21 KB object code size  0.3/0.4/[0.3]

