Circuit: * H:\Documents_H\KiCad\Projects\battery-node\simulations\FET Driver rev2 working.asc

WARNING: Specified period is not longer than the sum of Trise, Tfall, and Ton for v2.  Increasing period to 2
Direct Newton iteration failed to find .op point.  (Use ".option noopiter" to skip.)
Starting Gmin stepping
Gmin = 10
Gmin = 1.07374
Gmin = 0.115292
Gmin = 0.0123794
Gmin = 0.00132923
Gmin = 0.000142725
Gmin = 1.5325e-005
Gmin = 1.6455e-006
Gmin = 1.76685e-007
Gmin = 1.89714e-008
Gmin = 2.03704e-009
Gmin = 2.18725e-010
Gmin = 2.34854e-011
Gmin = 2.52173e-012
Gmin = 2.70769e-013
Gmin = 0
Gmin stepping succeeded in finding the operating point.

Heightened Def Con from 0.0055 to 0.0055
Heightened Def Con from 0.0055 to 0.0055

Date: Fri Apr 03 00:47:36 2026
Total elapsed time: 0.226 seconds.

tnom = 27
temp = 27
method = modified trap
totiter = 22688
traniter = 22233
tranpoints = 6477
accept = 4692
rejected = 1787
matrix size = 39
fillins = 54
solver = Normal
Matrix Compiler1: 5.81 KB object code size  1.0/0.5/[0.4]
Matrix Compiler2: 4.21 KB object code size  0.4/0.4/[0.3]

