Circuit: * H:\Documents_H\KiCad\Projects\battery-node\simulations\FET Driver rev5 revised_based_on_TI.asc

Direct Newton iteration for .op point succeeded.

Date: Sun Apr 26 02:08:14 2026
Total elapsed time: 0.150 seconds.

tnom = 27
temp = 27
method = modified trap
totiter = 7093
traniter = 7072
tranpoints = 2113
accept = 1860
rejected = 253
matrix size = 56
fillins = 90
solver = Normal
Matrix Compiler1: 9.61 KB object code size  1.3/0.6/[0.6]
Matrix Compiler2: 6.49 KB object code size  0.4/0.6/[0.3]

