Circuit: * H:\Documents_H\KiCad\Projects\battery-node\simulations\FET Driver rev3.asc

WARNING: Node N003 is floating.

Direct Newton iteration for .op point succeeded.

Date: Thu Jan 29 23:04:37 2026
Total elapsed time: 0.140 seconds.

tnom = 27
temp = 27
method = modified trap
totiter = 4105
traniter = 4058
tranpoints = 1520
accept = 1401
rejected = 119
matrix size = 36
fillins = 14
solver = Normal
Matrix Compiler1: 3.29 KB object code size  0.5/0.2/[0.2]
Matrix Compiler2: 3.19 KB object code size  0.2/0.4/[0.2]

