Circuit: * H:\Documents_H\KiCad\Projects\battery-node\simulations\FET Driver rev4_testing_with_longer_short_time.asc

WARNING: Specified period is not longer than the sum of Trise, Tfall, and Ton for v2.  Increasing period to 1.002
WARNING: Node N003 is floating.

Direct Newton iteration for .op point succeeded.

Date: Fri Apr 03 00:34:49 2026
Total elapsed time: 0.099 seconds.

tnom = 27
temp = 27
method = modified trap
totiter = 3194
traniter = 3172
tranpoints = 1356
accept = 1288
rejected = 68
matrix size = 36
fillins = 24
solver = Normal
Matrix Compiler1: 3.54 KB object code size  0.6/0.3/[0.2]
Matrix Compiler2: 3.36 KB object code size  0.2/0.3/[0.2]

