Circuit: * H:\Documents_H\KiCad\Projects\battery-node\simulations\FET Driver rev4_breaking_setup.asc

WARNING: Specified period is not longer than the sum of Trise, Tfall, and Ton for v2.  Increasing period to 2.001
Direct Newton iteration for .op point succeeded.

Date: Sat Apr 11 09:39:01 2026
Total elapsed time: 0.101 seconds.

tnom = 27
temp = 27
method = modified trap
totiter = 2867
traniter = 2845
tranpoints = 1259
accept = 1204
rejected = 55
matrix size = 31
fillins = 24
solver = Normal
Matrix Compiler1: 3.37 KB object code size  0.5/0.2/[0.2]
Matrix Compiler2: off  [0.2]/0.3/0.2

