Circuit: * H:\Documents_H\KiCad\Projects\battery-node\simulations\FET Driver rev5 revised_based_on_TI.asc

Direct Newton iteration for .op point succeeded.

Date: Wed Apr 22 22:06:23 2026
Total elapsed time: 0.158 seconds.

tnom = 27
temp = 27
method = modified trap
totiter = 7404
traniter = 7383
tranpoints = 2210
accept = 1925
rejected = 285
matrix size = 55
fillins = 84
solver = Normal
Matrix Compiler1: 9.18 KB object code size  1.2/1.7/[0.5]
Matrix Compiler2: 6.27 KB object code size  0.4/0.6/[0.3]

