Circuit: * H:\Documents_H\KiCad\Projects\battery-node\simulations\FET Driver.asc

WARNING: Node N006 is floating.
WARNING: Node NC_01 is floating.

Direct Newton iteration failed to find .op point.  (Use ".option noopiter" to skip.)
Starting Gmin stepping
Gmin = 10
Gmin = 1.07374
Gmin = 0.115292
Gmin = 0.0123794
Gmin = 0.00132923
Gmin = 0.000142725
Gmin = 1.5325e-005
Gmin = 1.6455e-006
Gmin = 1.76685e-007
Gmin = 1.89714e-008
Gmin = 2.03704e-009
Gmin = 2.18725e-010
Gmin = 2.34854e-011
Gmin = 2.52173e-012
Gmin = 2.70769e-013
Gmin = 0
Gmin stepping succeeded in finding the operating point.

Heightened Def Con from 0.005 to 0.005

Date: Thu Jan 29 23:04:12 2026
Total elapsed time: 2.272 seconds.

tnom = 27
temp = 27
method = modified trap
totiter = 590247
traniter = 589828
tranpoints = 179998
accept = 125183
rejected = 54816
matrix size = 31
fillins = 47
solver = Normal
Matrix Compiler1: 4.29 KB object code size  0.7/0.3/[0.3]
Matrix Compiler2: 3.14 KB object code size  0.3/0.4/[0.2]

