Circuit: * H:\Documents_H\KiCad\Projects\battery-node\simulations\FET Driver rev2 bjt_test.asc

WARNING: Specified period is not longer than the sum of Trise, Tfall, and Ton for v2.  Increasing period to 2
Direct Newton iteration failed to find .op point.  (Use ".option noopiter" to skip.)
Starting Gmin stepping
Gmin = 10
Gmin = 1.07374
Gmin = 0.115292
Gmin = 0.0123794
Gmin = 0.00132923
Gmin = 0.000142725
Gmin = 1.5325e-005
Gmin = 1.6455e-006
Gmin = 1.76685e-007
Gmin = 1.89714e-008
Gmin = 2.03704e-009
Gmin = 2.18725e-010
Gmin = 2.34854e-011
Gmin = 2.52173e-012
Gmin = 2.70769e-013
Gmin = 0
Gmin stepping succeeded in finding the operating point.


Date: Tue Apr 21 00:58:54 2026
Total elapsed time: 0.117 seconds.

tnom = 27
temp = 27
method = modified trap
totiter = 3344
traniter = 2914
tranpoints = 1316
accept = 1266
rejected = 50
matrix size = 31
fillins = 50
solver = Normal
Matrix Compiler1:     279 opcodes  0.7/[0.3]/0.3
Matrix Compiler2: 3.53 KB object code size  0.4/0.4/[0.2]

