Circuit: * H:\Documents_H\KiCad\Projects\battery-node\simulations\FET Driver rev4.asc

WARNING: Specified period is not longer than the sum of Trise, Tfall, and Ton for v2.  Increasing period to 2
WARNING: Node N003 is floating.

Direct Newton iteration for .op point succeeded.

Date: Sun Apr 19 14:23:32 2026
Total elapsed time: 0.206 seconds.

tnom = 27
temp = 27
method = modified trap
totiter = 21019
traniter = 20997
tranpoints = 9717
accept = 6965
rejected = 2752
matrix size = 36
fillins = 24
solver = Normal
Matrix Compiler1: 3.54 KB object code size  0.6/0.2/[0.2]
Matrix Compiler2: 3.36 KB object code size  0.2/0.4/[0.2]

