Circuit: * H:\Documents_H\KiCad\Projects\battery-node\simulations\FET Driver rev2 working.asc

WARNING: Node N006 is floating.

Direct Newton iteration failed to find .op point.  (Use ".option noopiter" to skip.)
Starting Gmin stepping
Gmin = 10
Gmin = 1.07374
Gmin = 0.115292
Gmin = 0.0123794
Gmin = 0.00132923
Gmin = 0.000142725
Gmin = 1.5325e-005
Gmin = 1.6455e-006
Gmin = 1.76685e-007
Gmin = 1.89714e-008
Gmin = 2.03704e-009
Gmin = 2.18725e-010
Gmin = 2.34854e-011
Gmin = 2.52173e-012
Gmin = 2.70769e-013
Gmin = 0
Gmin stepping succeeded in finding the operating point.


Date: Thu Jan 29 23:04:51 2026
Total elapsed time: 0.184 seconds.

tnom = 27
temp = 27
method = modified trap
totiter = 8616
traniter = 8157
tranpoints = 2649
accept = 2149
rejected = 500
matrix size = 42
fillins = 51
solver = Normal
Matrix Compiler1: 5.73 KB object code size  1.0/0.5/[0.4]
Matrix Compiler2: 4.29 KB object code size  0.4/0.5/[0.3]

