Circuit: * H:\Documents_H\KiCad\Projects\battery-node\simulations\LD Pin reverse polarity protection.asc

WARNING: Node NC_02 is floating.

WARNING: Less than two connections to node NC_01.  This node is used by R4.
WARNING: Less than two connections to node NC_02.  This node is used by R4.
Direct Newton iteration for .op point succeeded.

Date: Wed Apr 22 21:25:21 2026
Total elapsed time: 0.086 seconds.

tnom = 27
temp = 27
method = modified trap
totiter = 2488
traniter = 2477
tranpoints = 1145
accept = 1128
rejected = 17
matrix size = 16
fillins = 8
solver = Normal
Matrix Compiler1: 1.18 KB object code size  0.2/0.1/[0.1]
Matrix Compiler2: off  [0.1]/0.2/0.1

