Circuit: * H:\Documents_H\KiCad\Projects\battery-node\simulations\NMOS Gate Charge Test.asc

Direct Newton iteration for .op point succeeded.

Date: Thu Jan 29 22:51:20 2026
Total elapsed time: 0.106 seconds.

tnom = 27
temp = 27
method = modified trap
totiter = 3131
traniter = 3125
tranpoints = 1128
accept = 1105
rejected = 23
matrix size = 7
fillins = 0
solver = Normal
Matrix Compiler1:      15 opcodes  0.1/[0.1]/0.1
Matrix Compiler2: off  [0.1]/0.1/0.1

