Circuit: * H:\Documents_H\KiCad\Projects\battery-node\simulations\test.asc

Direct Newton iteration for .op point succeeded.

Date: Thu Jan 29 22:50:27 2026
Total elapsed time: 0.043 seconds.

tnom = 27
temp = 27
method = modified trap
totiter = 2919
traniter = 2915
tranpoints = 1049
accept = 1049
rejected = 0
matrix size = 8
fillins = 0
solver = Normal
Matrix Compiler1: 246 bytes object code size  0.1/0.1/[0.0]
Matrix Compiler2: off  [0.0]/0.1/0.1

